.subckt AOP 1 2 3 4 5 6 
E1 6 4 3 2 1e15
.ends AOP
